Version 4
SHEET 1 1284 1240
WIRE 608 -32 544 -32
WIRE 800 -32 672 -32
WIRE 848 -32 800 -32
WIRE 960 -32 928 -32
WIRE 1120 -32 960 -32
WIRE 544 0 544 -32
WIRE 800 0 800 -32
WIRE 960 0 960 -32
WIRE 1120 0 1120 -32
WIRE 144 16 64 16
WIRE 400 16 224 16
WIRE 64 64 64 16
WIRE 544 112 544 80
WIRE 800 112 800 64
WIRE 800 112 544 112
WIRE 960 112 960 64
WIRE 960 112 800 112
WIRE 1120 112 1120 80
WIRE 1120 112 960 112
WIRE -624 128 -688 128
WIRE -320 128 -544 128
WIRE 400 128 400 16
WIRE 800 160 800 112
WIRE -688 176 -688 128
WIRE 144 208 144 160
WIRE 400 256 400 208
WIRE 400 256 240 256
WIRE -320 288 -320 128
WIRE 240 304 240 256
WIRE 640 320 560 320
WIRE 736 320 704 320
WIRE 768 320 736 320
WIRE 896 320 848 320
WIRE 976 320 896 320
WIRE 1120 320 976 320
WIRE -480 352 -752 352
WIRE 560 368 560 320
WIRE 736 368 736 320
WIRE 896 368 896 320
WIRE 1120 368 1120 320
WIRE -160 384 -176 384
WIRE 0 384 -160 384
WIRE 144 384 144 288
WIRE 144 384 80 384
WIRE 192 384 144 384
WIRE -752 416 -752 352
WIRE -736 416 -752 416
WIRE -608 416 -656 416
WIRE -480 416 -544 416
WIRE -512 480 -688 480
WIRE -480 480 -512 480
WIRE 560 480 560 448
WIRE 736 480 736 432
WIRE 736 480 560 480
WIRE 816 480 736 480
WIRE 896 480 896 432
WIRE 896 480 816 480
WIRE 1120 480 1120 448
WIRE 1120 480 896 480
WIRE 976 496 976 320
WIRE -688 512 -688 480
WIRE -96 512 -160 512
WIRE -32 512 -96 512
WIRE 240 512 240 400
WIRE 240 512 48 512
WIRE -480 544 -544 544
WIRE -96 560 -96 512
WIRE 816 560 816 480
WIRE -688 624 -688 592
WIRE -544 624 -544 544
WIRE -544 624 -688 624
WIRE 240 640 240 512
WIRE -688 656 -688 624
WIRE -96 656 -96 624
WIRE 976 656 976 576
WIRE 976 656 848 656
WIRE -512 672 -512 480
WIRE -320 688 -320 608
WIRE 976 736 976 656
WIRE -688 768 -688 720
WIRE -512 768 -512 736
WIRE 240 784 240 720
WIRE -752 848 -752 416
WIRE 848 848 848 656
WIRE 848 848 -752 848
WIRE 976 864 976 816
FLAG -320 688 0
FLAG -688 768 0
FLAG -512 768 0
FLAG -688 176 0
FLAG 64 64 0
FLAG 240 784 0
FLAG 816 560 0
FLAG 976 864 0
FLAG 144 160 0
FLAG -96 656 0
FLAG 800 160 0
SYMBOL PowerProducts\\LT1241 -320 448 R0
SYMATTR InstName U1
SYMBOL res 96 368 R90
WINDOW 0 0 56 VBottom 2
WINDOW 3 32 56 VTop 2
SYMATTR InstName R4
SYMATTR Value 10
SYMBOL voltage -528 128 R90
WINDOW 0 -32 56 VBottom 2
WINDOW 3 32 56 VTop 2
WINDOW 123 0 0 Left 0
WINDOW 39 0 0 Left 0
SYMATTR InstName V1
SYMATTR Value 24
SYMBOL res -640 400 R90
WINDOW 0 0 56 VBottom 2
WINDOW 3 32 56 VTop 2
SYMATTR InstName R1
SYMATTR Value 100k
SYMBOL nmos 192 304 R0
SYMATTR InstName M1
SYMATTR Value STW11NM80
SYMBOL res 224 624 R0
SYMATTR InstName R2
SYMATTR Value 0.33
SYMBOL res 64 496 R90
WINDOW 0 0 56 VBottom 2
WINDOW 3 32 56 VTop 2
SYMATTR InstName R3
SYMATTR Value 3.3k
SYMBOL ind2 384 112 R0
SYMATTR InstName L1
SYMATTR Value 900µ
SYMATTR Type ind
SYMBOL ind2 576 464 R180
WINDOW 0 36 80 Left 2
WINDOW 3 36 40 Left 2
SYMATTR InstName L3
SYMATTR Value 100µ
SYMATTR Type ind
SYMBOL voltage 240 16 R90
WINDOW 0 -32 56 VBottom 2
WINDOW 3 32 56 VTop 2
WINDOW 123 0 0 Left 0
WINDOW 39 0 0 Left 0
SYMATTR InstName V2
SYMATTR Value 300
SYMBOL res 992 832 R180
WINDOW 0 36 76 Left 2
WINDOW 3 36 40 Left 2
SYMATTR InstName R5
SYMATTR Value 10k
SYMBOL res -704 496 R0
SYMATTR InstName R7
SYMATTR Value 15k
SYMBOL cap -704 656 R0
SYMATTR InstName C1
SYMATTR Value 1000p
SYMBOL cap -528 672 R0
SYMATTR InstName C2
SYMATTR Value 1µ
SYMBOL schottky 640 336 R270
WINDOW 0 32 32 VTop 2
WINDOW 3 0 32 VBottom 2
SYMATTR InstName D2
SYMATTR Value MBRS140
SYMATTR Description Diode
SYMATTR Type diode
SYMBOL polcap 720 368 R0
WINDOW 3 24 56 Left 2
SYMATTR Value 1000µ
SYMATTR InstName C4
SYMATTR Description Capacitor
SYMATTR Type cap
SYMATTR SpiceLine V=35 Irms=190m Rser=0.5 Lser=0
SYMBOL res 960 480 R0
SYMATTR InstName R8
SYMATTR Value 86k
SYMBOL res 128 192 R0
SYMATTR InstName R9
SYMATTR Value 10K
SYMBOL cap -112 560 R0
SYMATTR InstName C3
SYMATTR Value 0.1µ
SYMBOL cap -544 400 R90
WINDOW 0 0 32 VBottom 2
WINDOW 3 32 32 VTop 2
SYMATTR InstName C5
SYMATTR Value 0.01µ
SYMBOL ind2 560 96 R180
WINDOW 0 36 80 Left 2
WINDOW 3 36 40 Left 2
SYMATTR InstName L2
SYMATTR Value 100µ
SYMATTR Type ind
SYMBOL schottky 608 -16 R270
WINDOW 0 32 32 VTop 2
WINDOW 3 0 32 VBottom 2
SYMATTR InstName D1
SYMATTR Value MBRS140
SYMATTR Description Diode
SYMATTR Type diode
SYMBOL polcap 784 0 R0
WINDOW 3 24 56 Left 2
SYMATTR Value 1000µ
SYMATTR InstName C6
SYMATTR Description Capacitor
SYMATTR Type cap
SYMATTR SpiceLine V=35 Irms=190m Rser=0.5 Lser=0
SYMBOL res 1104 352 R0
SYMATTR InstName R6
SYMATTR Value 10
SYMBOL polcap 880 368 R0
WINDOW 3 24 56 Left 2
SYMATTR Value 1000µ
SYMATTR InstName C7
SYMATTR Description Capacitor
SYMATTR Type cap
SYMATTR SpiceLine V=35 Irms=190m Rser=0.5 Lser=0
SYMBOL ind 752 336 R270
WINDOW 0 32 56 VTop 2
WINDOW 3 5 56 VBottom 2
SYMATTR InstName L4
SYMATTR Value 3.3µ
SYMBOL ind 832 -16 R270
WINDOW 0 32 56 VTop 2
WINDOW 3 5 56 VBottom 2
SYMATTR InstName L5
SYMATTR Value 3.3µ
SYMBOL polcap 944 0 R0
WINDOW 3 24 56 Left 2
SYMATTR Value 1000µ
SYMATTR InstName C8
SYMATTR Description Capacitor
SYMATTR Type cap
SYMATTR SpiceLine V=35 Irms=190m Rser=0.5 Lser=0
SYMBOL res 1104 -16 R0
SYMATTR InstName R10
SYMATTR Value 25
TEXT 304 -48 Left 2 !K L1 L2 L3 1
TEXT -736 928 Left 2 !.tran 30m
